<?xml version="1.0" encoding="UTF-8"?>

<!-- generated on 2024-08-22 08:42:31 by Eclipse SUMO netconvert Version 1.20.0
<configuration xmlns:xsi="http://www.w3.org/2001/XMLSchema-instance" xsi:noNamespaceSchemaLocation="http://sumo.dlr.de/xsd/netconvertConfiguration.xsd">

    <input>
        <node-files value="C:\bin\freewayandreia.nod.xml"/>
        <edge-files value="C:\bin\freewayandreia.edg.xml"/>
    </input>

    <output>
        <output-file value="C:\bin\freewayandreia.net.xml"/>
    </output>

</configuration>
-->

<net version="1.20" junctionCornerDetail="5" limitTurnSpeed="5.50" xmlns:xsi="http://www.w3.org/2001/XMLSchema-instance" xsi:noNamespaceSchemaLocation="http://sumo.dlr.de/xsd/net_file.xsd">

    <location netOffset="0.00,0.00" convBoundary="0.00,0.00,2000.00,0.00" origBoundary="0.00,0.00,2000.00,0.00" projParameter="!"/>

    <edge id="1to2" from="p1" to="p2" priority="-1">
        <lane id="1to2_0" index="0" speed="13.89" length="2000.00" shape="0.00,-4.80 2000.00,-4.80"/>
        <lane id="1to2_1" index="1" speed="13.89" length="2000.00" shape="0.00,-1.60 2000.00,-1.60"/>
    </edge>

    <junction id="p1" type="dead_end" x="0.00" y="0.00" incLanes="" intLanes="" shape="0.00,0.00 0.00,-6.40"/>
    <junction id="p2" type="dead_end" x="2000.00" y="0.00" incLanes="1to2_0 1to2_1" intLanes="" shape="2000.00,-6.40 2000.00,0.00"/>

</net>
