<edges>
  <edge from="p1" id="1to2" to="p2" numLanes="2" />
</edges>