<configuration>
  <input>
    <net-file value="freewayandreia.net.xml"/>
    <route-files value="freewayandreia.rou.xml"/>
  </input>
</configuration>