<nodes>
  <node id="p1" x="0"   y="0" />
  <node id="p2" x="2000" y="0" />
</nodes>