<?xml version="1.0" encoding="UTF-8"?>

<!-- generated on 2024-08-22 09:57:22 by Eclipse SUMO duarouter Version 1.20.0
<configuration xmlns:xsi="http://www.w3.org/2001/XMLSchema-instance" xsi:noNamespaceSchemaLocation="http://sumo.dlr.de/xsd/duarouterConfiguration.xsd">

    <input>
        <net-file value="C:\bin\freewayandreia.net.xml"/>
        <route-files value="freewayandreia.trips.xml"/>
    </input>

    <output>
        <output-file value="freewayandreia.rou.xml"/>
    </output>

</configuration>
-->

<routes xmlns:xsi="http://www.w3.org/2001/XMLSchema-instance" xsi:noNamespaceSchemaLocation="http://sumo.dlr.de/xsd/routes_file.xsd">
    <vehicle id="0" depart="0.00">
        <route edges="1to2"/>
    </vehicle>
    <vehicle id="1" depart="10.00">
        <route edges="1to2"/>
    </vehicle>
    <vehicle id="2" depart="20.00">
        <route edges="1to2"/>
    </vehicle>
    <vehicle id="3" depart="30.00">
        <route edges="1to2"/>
    </vehicle>
    <vehicle id="4" depart="40.00">
        <route edges="1to2"/>
    </vehicle>
    <vehicle id="5" depart="50.00">
        <route edges="1to2"/>
    </vehicle>
    <vehicle id="6" depart="60.00">
        <route edges="1to2"/>
    </vehicle>
    <vehicle id="7" depart="70.00">
        <route edges="1to2"/>
    </vehicle>
    <vehicle id="8" depart="80.00">
        <route edges="1to2"/>
    </vehicle>
    <vehicle id="9" depart="90.00">
        <route edges="1to2"/>
    </vehicle>
    <vehicle id="10" depart="100.00">
        <route edges="1to2"/>
    </vehicle>
    <vehicle id="11" depart="110.00">
        <route edges="1to2"/>
    </vehicle>
    <vehicle id="12" depart="120.00">
        <route edges="1to2"/>
    </vehicle>
    <vehicle id="13" depart="130.00">
        <route edges="1to2"/>
    </vehicle>
    <vehicle id="14" depart="140.00">
        <route edges="1to2"/>
    </vehicle>
    <vehicle id="15" depart="150.00">
        <route edges="1to2"/>
    </vehicle>
    <vehicle id="16" depart="160.00">
        <route edges="1to2"/>
    </vehicle>
    <vehicle id="17" depart="170.00">
        <route edges="1to2"/>
    </vehicle>
    <vehicle id="18" depart="180.00">
        <route edges="1to2"/>
    </vehicle>
    <vehicle id="19" depart="190.00">
        <route edges="1to2"/>
    </vehicle>
</routes>
